# File generated by Flopy version 3.3.2 on 01/25/2021 at 16:07:41.
BEGIN options
  COMPLEXITY  simple
END options

