# File generated by Flopy version 3.3.2 on 01/28/2021 at 22:28:09.
BEGIN options
  BUDGET  FILEOUT  ejercicio1.cbb
  HEAD  FILEOUT  ejercicio1.hds
END options

BEGIN period  1
  SAVE  HEAD  ALL
  SAVE  BUDGET  ALL
  PRINT  HEAD  LAST
END period  1

