# File generated by Flopy version 3.3.2 on 01/28/2021 at 22:28:06.
BEGIN options
END options

BEGIN timing
  TDIS6  ejercicio1.tdis
END timing

BEGIN models
  gwf6  ejercicio1.nam  ejercicio1
END models

BEGIN exchanges
END exchanges

BEGIN solutiongroup  1
  ims6  ejercicio1.ims  ejercicio1
END solutiongroup  1

